Version 4
SHEET 1 880 680
WIRE 560 -16 528 -16
WIRE 672 -16 560 -16
WIRE 672 0 672 -16
WIRE 176 32 -192 32
WIRE 240 32 176 32
WIRE 240 96 240 32
WIRE 448 96 320 96
WIRE 528 96 512 96
WIRE 560 96 560 48
WIRE 560 96 528 96
WIRE 672 96 672 80
WIRE 672 96 560 96
WIRE 240 176 64 176
WIRE 176 224 176 32
WIRE 320 224 320 176
WIRE 320 224 176 224
WIRE -32 272 -192 272
WIRE 64 288 64 176
WIRE -192 304 -192 272
WIRE -32 368 -32 352
WIRE 16 368 -32 368
WIRE 64 448 64 384
WIRE 64 448 -32 448
WIRE 64 480 64 448
FLAG -192 384 0
FLAG 64 480 0
FLAG -192 112 0
FLAG 528 -16 0
FLAG -32 368 gate
FLAG 528 96 vout
SYMBOL ind2 224 80 R0
WINDOW 0 -27 39 Left 2
WINDOW 3 -27 73 Left 2
SYMATTR InstName L1
SYMATTR Value 7µ
SYMATTR Type ind
SYMBOL ind2 336 192 R180
WINDOW 0 -31 74 Left 2
WINDOW 3 -57 36 Left 2
SYMATTR InstName L2
SYMATTR Value 700µ
SYMATTR Type ind
SYMBOL Misc\\signal -192 288 R0
WINDOW 3 -365 58 Left 2
WINDOW 123 0 0 Left 0
WINDOW 39 0 0 Left 0
SYMATTR InstName V1
SYMATTR Value PULSE(0 10 0 0 0 15u 33u)
SYMBOL Contrib\\Nexperia\\nmos\\BUK7K12-60E 16 288 R0
SYMATTR InstName U1
SYMBOL res -48 352 R0
SYMATTR InstName R1
SYMATTR Value 10k
SYMBOL res -48 256 R0
SYMATTR InstName R2
SYMATTR Value 470
SYMBOL voltage -192 16 R0
WINDOW 123 0 0 Left 0
WINDOW 39 0 0 Left 0
SYMATTR InstName V2
SYMATTR Value 5
SYMBOL diode 448 112 R270
WINDOW 0 32 32 VTop 2
WINDOW 3 0 32 VBottom 2
SYMATTR InstName D1
SYMATTR Value VS-E7MH0112
SYMBOL cap 544 -16 R0
SYMATTR InstName C1
SYMATTR Value 10µ
SYMBOL res 656 -16 R0
SYMATTR InstName R3
SYMATTR Value 100k
TEXT 256 240 Left 2 ;1:10
TEXT 224 272 Left 2 !K1 L1 L2 1
TEXT -378 452 Left 2 !.tran 0.1
LINE Normal 272 224 272 32 2
LINE Normal 288 224 288 32 2
